*SPEF "ieee 1481-1999"
*DESIGN "toysram_site"
*DATE "11:11:11 Fri 11 11, 1111"
*VENDOR "OpenRCX"
*PROGRAM "Parallel Extraction"
*VERSION "1.0"
*DESIGN_FLOW "NAME_SCOPE LOCAL" "PIN_CAP NONE"
*DIVIDER /
*DELIMITER :
*BUS_DELIMITER []
*T_UNIT 1 NS
*C_UNIT 1 PF
*R_UNIT 1 OHM
*L_UNIT 1 HENRY

*NAME_MAP
*1 io_in[0]
*2 io_in[10]
*3 io_in[11]
*4 io_in[12]
*5 io_in[13]
*6 io_in[14]
*7 io_in[15]
*8 io_in[16]
*9 io_in[17]
*10 io_in[18]
*11 io_in[19]
*12 io_in[1]
*13 io_in[20]
*14 io_in[21]
*15 io_in[22]
*16 io_in[23]
*17 io_in[24]
*18 io_in[25]
*19 io_in[26]
*20 io_in[27]
*21 io_in[28]
*22 io_in[29]
*23 io_in[2]
*24 io_in[30]
*25 io_in[31]
*26 io_in[32]
*27 io_in[33]
*28 io_in[34]
*29 io_in[35]
*30 io_in[36]
*31 io_in[37]
*32 io_in[3]
*33 io_in[4]
*34 io_in[5]
*35 io_in[6]
*36 io_in[7]
*37 io_in[8]
*38 io_in[9]
*39 net267
*40 net276
*41 net277
*42 net278
*43 net279
*44 net280
*45 net281
*46 net282
*47 net283
*48 net284
*49 net285
*50 net268
*51 net286
*52 net287
*53 net288
*54 net289
*55 net290
*56 net291
*57 net292
*58 net293
*59 net294
*60 net295
*61 net269
*62 net296
*63 net297
*64 net298
*65 net299
*66 net300
*67 net301
*68 net302
*69 net303
*70 net97
*71 net270
*72 net271
*73 net272
*74 net273
*75 net274
*76 net275
*77 net98
*78 net108
*79 net109
*80 net110
*81 net111
*82 net112
*83 net113
*84 net114
*85 net115
*86 net116
*87 net117
*88 net99
*89 net118
*90 net119
*91 net120
*92 net121
*93 net122
*94 net123
*95 net124
*96 net125
*97 net126
*98 net127
*99 net100
*100 net128
*101 net129
*102 net130
*103 net131
*104 net132
*105 net133
*106 net134
*107 net135
*108 net101
*109 net102
*110 net103
*111 net104
*112 net105
*113 net106
*114 net107
*115 net136
*116 net137
*117 net138
*118 la_data_in[0]
*119 la_data_in[100]
*120 la_data_in[101]
*121 la_data_in[102]
*122 la_data_in[103]
*123 la_data_in[104]
*124 la_data_in[105]
*125 la_data_in[106]
*126 la_data_in[107]
*127 la_data_in[108]
*128 la_data_in[109]
*129 la_data_in[10]
*130 la_data_in[110]
*131 la_data_in[111]
*132 la_data_in[112]
*133 la_data_in[113]
*134 la_data_in[114]
*135 la_data_in[115]
*136 la_data_in[116]
*137 la_data_in[117]
*138 la_data_in[118]
*139 la_data_in[119]
*140 la_data_in[11]
*141 la_data_in[120]
*142 la_data_in[121]
*143 la_data_in[122]
*144 la_data_in[123]
*145 la_data_in[124]
*146 la_data_in[125]
*147 la_data_in[126]
*148 la_data_in[127]
*149 la_data_in[12]
*150 la_data_in[13]
*151 la_data_in[14]
*152 la_data_in[15]
*153 la_data_in[16]
*154 la_data_in[17]
*155 la_data_in[18]
*156 la_data_in[19]
*157 la_data_in[1]
*158 la_data_in[20]
*159 la_data_in[21]
*160 la_data_in[22]
*161 la_data_in[23]
*162 la_data_in[24]
*163 la_data_in[25]
*164 la_data_in[26]
*165 la_data_in[27]
*166 la_data_in[28]
*167 la_data_in[29]
*168 la_data_in[2]
*169 la_data_in[30]
*170 la_data_in[31]
*171 la_data_in[32]
*172 la_data_in[33]
*173 la_data_in[34]
*174 la_data_in[35]
*175 la_data_in[36]
*176 la_data_in[37]
*177 la_data_in[38]
*178 la_data_in[39]
*179 la_data_in[3]
*180 la_data_in[40]
*181 la_data_in[41]
*182 la_data_in[42]
*183 la_data_in[43]
*184 la_data_in[44]
*185 la_data_in[45]
*186 la_data_in[46]
*187 la_data_in[47]
*188 la_data_in[48]
*189 la_data_in[49]
*190 la_data_in[4]
*191 la_data_in[50]
*192 la_data_in[51]
*193 la_data_in[52]
*194 la_data_in[53]
*195 la_data_in[54]
*196 la_data_in[55]
*197 la_data_in[56]
*198 la_data_in[57]
*199 la_data_in[58]
*200 la_data_in[59]
*201 la_data_in[5]
*202 la_data_in[60]
*203 la_data_in[61]
*204 la_data_in[62]
*205 la_data_in[63]
*206 la_data_in[64]
*207 la_data_in[65]
*208 la_data_in[66]
*209 la_data_in[67]
*210 la_data_in[68]
*211 la_data_in[69]
*212 la_data_in[6]
*213 la_data_in[70]
*214 la_data_in[71]
*215 la_data_in[72]
*216 la_data_in[73]
*217 la_data_in[74]
*218 la_data_in[75]
*219 la_data_in[76]
*220 la_data_in[77]
*221 la_data_in[78]
*222 la_data_in[79]
*223 la_data_in[7]
*224 la_data_in[80]
*225 la_data_in[81]
*226 la_data_in[82]
*227 la_data_in[83]
*228 la_data_in[84]
*229 la_data_in[85]
*230 la_data_in[86]
*231 la_data_in[87]
*232 la_data_in[88]
*233 la_data_in[89]
*234 la_data_in[8]
*235 la_data_in[90]
*236 la_data_in[91]
*237 la_data_in[92]
*238 la_data_in[93]
*239 la_data_in[94]
*240 la_data_in[95]
*241 la_data_in[96]
*242 la_data_in[97]
*243 la_data_in[98]
*244 la_data_in[99]
*245 la_data_in[9]
*246 net139
*247 net239
*248 net240
*249 net241
*250 net242
*251 net243
*252 net244
*253 net245
*254 net246
*255 net247
*256 net248
*257 net149
*258 net249
*259 net250
*260 net251
*261 net252
*262 net253
*263 net254
*264 net255
*265 net256
*266 net257
*267 net258
*268 net150
*269 net259
*270 net260
*271 net261
*272 net262
*273 net263
*274 net264
*275 net265
*276 net266
*277 net151
*278 net152
*279 net153
*280 net154
*281 net155
*282 net156
*283 net157
*284 net158
*285 net140
*286 net159
*287 net160
*288 net161
*289 net162
*290 net163
*291 net164
*292 net165
*293 net166
*294 net167
*295 net168
*296 net141
*297 net169
*298 net170
*299 net171
*300 net172
*301 net173
*302 net174
*303 net175
*304 net176
*305 net177
*306 net178
*307 net142
*308 net179
*309 net180
*310 net181
*311 net182
*312 net183
*313 net184
*314 net185
*315 net186
*316 net187
*317 net188
*318 net143
*319 net189
*320 net190
*321 net191
*322 net192
*323 net193
*324 net194
*325 net195
*326 net196
*327 net197
*328 net198
*329 net144
*330 net199
*331 net200
*332 net201
*333 net202
*334 net203
*335 net204
*336 net205
*337 net206
*338 net207
*339 net208
*340 net145
*341 net209
*342 net210
*343 net211
*344 net212
*345 net213
*346 net214
*347 net215
*348 net216
*349 net217
*350 net218
*351 net146
*352 net219
*353 net220
*354 net221
*355 net222
*356 net223
*357 net224
*358 net225
*359 net226
*360 net227
*361 net228
*362 net147
*363 net229
*364 net230
*365 net231
*366 net232
*367 net233
*368 net234
*369 net235
*370 net236
*371 net237
*372 net238
*373 net148
*374 la_oenb[0]
*375 la_oenb[100]
*376 la_oenb[101]
*377 la_oenb[102]
*378 la_oenb[103]
*379 la_oenb[104]
*380 la_oenb[105]
*381 la_oenb[106]
*382 la_oenb[107]
*383 la_oenb[108]
*384 la_oenb[109]
*385 la_oenb[10]
*386 la_oenb[110]
*387 la_oenb[111]
*388 la_oenb[112]
*389 la_oenb[113]
*390 la_oenb[114]
*391 la_oenb[115]
*392 la_oenb[116]
*393 la_oenb[117]
*394 la_oenb[118]
*395 la_oenb[119]
*396 la_oenb[11]
*397 la_oenb[120]
*398 la_oenb[121]
*399 la_oenb[122]
*400 la_oenb[123]
*401 la_oenb[124]
*402 la_oenb[125]
*403 la_oenb[126]
*404 la_oenb[127]
*405 la_oenb[12]
*406 la_oenb[13]
*407 la_oenb[14]
*408 la_oenb[15]
*409 la_oenb[16]
*410 la_oenb[17]
*411 la_oenb[18]
*412 la_oenb[19]
*413 la_oenb[1]
*414 la_oenb[20]
*415 la_oenb[21]
*416 la_oenb[22]
*417 la_oenb[23]
*418 la_oenb[24]
*419 la_oenb[25]
*420 la_oenb[26]
*421 la_oenb[27]
*422 la_oenb[28]
*423 la_oenb[29]
*424 la_oenb[2]
*425 la_oenb[30]
*426 la_oenb[31]
*427 la_oenb[32]
*428 la_oenb[33]
*429 la_oenb[34]
*430 la_oenb[35]
*431 la_oenb[36]
*432 la_oenb[37]
*433 la_oenb[38]
*434 la_oenb[39]
*435 la_oenb[3]
*436 la_oenb[40]
*437 la_oenb[41]
*438 la_oenb[42]
*439 la_oenb[43]
*440 la_oenb[44]
*441 la_oenb[45]
*442 la_oenb[46]
*443 la_oenb[47]
*444 la_oenb[48]
*445 la_oenb[49]
*446 la_oenb[4]
*447 la_oenb[50]
*448 la_oenb[51]
*449 la_oenb[52]
*450 la_oenb[53]
*451 la_oenb[54]
*452 la_oenb[55]
*453 la_oenb[56]
*454 la_oenb[57]
*455 la_oenb[58]
*456 la_oenb[59]
*457 la_oenb[5]
*458 la_oenb[60]
*459 la_oenb[61]
*460 la_oenb[62]
*461 la_oenb[63]
*462 la_oenb[64]
*463 la_oenb[65]
*464 la_oenb[66]
*465 la_oenb[67]
*466 la_oenb[68]
*467 la_oenb[69]
*468 la_oenb[6]
*469 la_oenb[70]
*470 la_oenb[71]
*471 la_oenb[72]
*472 la_oenb[73]
*473 la_oenb[74]
*474 la_oenb[75]
*475 la_oenb[76]
*476 la_oenb[77]
*477 la_oenb[78]
*478 la_oenb[79]
*479 la_oenb[7]
*480 la_oenb[80]
*481 la_oenb[81]
*482 la_oenb[82]
*483 la_oenb[83]
*484 la_oenb[84]
*485 la_oenb[85]
*486 la_oenb[86]
*487 la_oenb[87]
*488 la_oenb[88]
*489 la_oenb[89]
*490 la_oenb[8]
*491 la_oenb[90]
*492 la_oenb[91]
*493 la_oenb[92]
*494 la_oenb[93]
*495 la_oenb[94]
*496 la_oenb[95]
*497 la_oenb[96]
*498 la_oenb[97]
*499 la_oenb[98]
*500 la_oenb[99]
*501 la_oenb[9]
*504 wb_clk_i
*505 wb_rst_i
*506 wbs_ack_o
*507 wbs_adr_i[0]
*508 wbs_adr_i[10]
*509 wbs_adr_i[11]
*510 wbs_adr_i[12]
*511 wbs_adr_i[13]
*512 wbs_adr_i[14]
*513 wbs_adr_i[15]
*514 wbs_adr_i[16]
*515 wbs_adr_i[17]
*516 wbs_adr_i[18]
*517 wbs_adr_i[19]
*518 wbs_adr_i[1]
*519 wbs_adr_i[20]
*520 wbs_adr_i[21]
*521 wbs_adr_i[22]
*522 wbs_adr_i[23]
*523 wbs_adr_i[24]
*524 wbs_adr_i[25]
*525 wbs_adr_i[26]
*526 wbs_adr_i[27]
*527 wbs_adr_i[28]
*528 wbs_adr_i[29]
*529 wbs_adr_i[2]
*530 wbs_adr_i[30]
*531 wbs_adr_i[31]
*532 wbs_adr_i[3]
*533 wbs_adr_i[4]
*534 wbs_adr_i[5]
*535 wbs_adr_i[6]
*536 wbs_adr_i[7]
*537 wbs_adr_i[8]
*538 wbs_adr_i[9]
*539 wbs_cyc_i
*540 wbs_dat_i[0]
*541 wbs_dat_i[10]
*542 wbs_dat_i[11]
*543 wbs_dat_i[12]
*544 wbs_dat_i[13]
*545 wbs_dat_i[14]
*546 wbs_dat_i[15]
*547 wbs_dat_i[16]
*548 wbs_dat_i[17]
*549 wbs_dat_i[18]
*550 wbs_dat_i[19]
*551 wbs_dat_i[1]
*552 wbs_dat_i[20]
*553 wbs_dat_i[21]
*554 wbs_dat_i[22]
*555 wbs_dat_i[23]
*556 wbs_dat_i[24]
*557 wbs_dat_i[25]
*558 wbs_dat_i[26]
*559 wbs_dat_i[27]
*560 wbs_dat_i[28]
*561 wbs_dat_i[29]
*562 wbs_dat_i[2]
*563 wbs_dat_i[30]
*564 wbs_dat_i[31]
*565 wbs_dat_i[3]
*566 wbs_dat_i[4]
*567 wbs_dat_i[5]
*568 wbs_dat_i[6]
*569 wbs_dat_i[7]
*570 wbs_dat_i[8]
*571 wbs_dat_i[9]
*572 wbs_dat_o[0]
*573 wbs_dat_o[10]
*574 wbs_dat_o[11]
*575 wbs_dat_o[12]
*576 wbs_dat_o[13]
*577 wbs_dat_o[14]
*578 wbs_dat_o[15]
*579 wbs_dat_o[16]
*580 wbs_dat_o[17]
*581 wbs_dat_o[18]
*582 wbs_dat_o[19]
*583 wbs_dat_o[1]
*584 wbs_dat_o[20]
*585 wbs_dat_o[21]
*586 wbs_dat_o[22]
*587 wbs_dat_o[23]
*588 wbs_dat_o[24]
*589 wbs_dat_o[25]
*590 wbs_dat_o[26]
*591 wbs_dat_o[27]
*592 wbs_dat_o[28]
*593 wbs_dat_o[29]
*594 wbs_dat_o[2]
*595 wbs_dat_o[30]
*596 wbs_dat_o[31]
*597 wbs_dat_o[3]
*598 wbs_dat_o[4]
*599 wbs_dat_o[5]
*600 wbs_dat_o[6]
*601 wbs_dat_o[7]
*602 wbs_dat_o[8]
*603 wbs_dat_o[9]
*604 wbs_sel_i[0]
*605 wbs_sel_i[1]
*606 wbs_sel_i[2]
*607 wbs_sel_i[3]
*608 wbs_stb_i
*609 wbs_we_i
*610 _0000_
*611 _0001_
*612 _0002_
*613 _0003_
*614 _0004_
*615 _0005_
*616 _0006_
*617 _0007_
*618 _0008_
*619 _0009_
*620 _0010_
*621 _0011_
*622 _0012_
*623 _0013_
*624 _0014_
*625 _0015_
*626 _0016_
*627 _0017_
*628 _0018_
*629 _0019_
*630 _0020_
*631 _0021_
*632 _0022_
*633 _0023_
*634 _0024_
*635 _0025_
*636 _0026_
*637 _0027_
*638 _0028_
*639 _0029_
*640 _0030_
*641 _0031_
*642 _0032_
*643 _0033_
*644 _0034_
*645 _0035_
*646 _0036_
*647 _0037_
*648 _0038_
*649 _0039_
*650 _0040_
*651 _0041_
*652 _0042_
*653 _0043_
*654 _0044_
*655 _0045_
*656 _0046_
*657 _0047_
*658 _0048_
*659 _0049_
*660 _0050_
*661 _0051_
*662 _0052_
*663 _0053_
*664 _0054_
*665 _0055_
*666 _0056_
*667 _0057_
*668 _0058_
*669 _0059_
*670 _0060_
*671 _0061_
*672 _0062_
*673 _0063_
*674 _0064_
*675 _0065_
*676 _0066_
*677 _0067_
*678 _0068_
*679 _0069_
*680 _0070_
*681 _0071_
*682 _0072_
*683 _0073_
*684 _0074_
*685 _0075_
*686 _0076_
*687 _0077_
*688 _0078_
*689 _0079_
*690 _0080_
*691 _0081_
*692 _0082_
*693 _0083_
*694 _0084_
*695 _0085_
*696 _0086_
*697 _0087_
*698 _0088_
*699 _0089_
*700 _0090_
*701 _0091_
*702 _0092_
*703 _0093_
*704 _0094_
*705 _0095_
*706 _0096_
*707 _0097_
*708 _0098_
*709 _0099_
*710 _0100_
*711 _0101_
*712 _0102_
*713 _0103_
*714 _0104_
*715 _0105_
*716 _0106_
*717 _0107_
*718 _0108_
*719 _0109_
*720 _0110_
*721 _0111_
*722 _0112_
*723 _0113_
*724 _0114_
*725 _0115_
*726 _0116_
*727 _0117_
*728 _0118_
*729 _0119_
*730 _0120_
*731 _0121_
*732 _0122_
*733 _0123_
*734 _0124_
*735 _0125_
*736 _0126_
*737 _0127_
*738 _0128_
*739 _0129_
*740 _0130_
*741 _0131_
*742 _0132_
*743 _0133_
*744 _0134_
*745 _0135_
*746 _0136_
*747 _0137_
*748 _0138_
*749 _0139_
*750 _0140_
*751 _0141_
*752 _0142_
*753 _0143_
*754 _0144_
*755 _0145_
*756 _0146_
*757 _0147_
*758 _0148_
*759 _0149_
*760 _0150_
*761 _0151_
*762 _0152_
*763 _0153_
*764 _0154_
*765 _0155_
*766 _0156_
*767 _0157_
*768 _0158_
*769 _0159_
*770 _0160_
*771 _0161_
*772 _0162_
*773 _0163_
*774 _0164_
*775 _0165_
*776 _0166_
*777 _0167_
*778 _0168_
*779 _0169_
*780 _0170_
*781 _0171_
*782 _0172_
*783 _0173_
*784 _0174_
*785 _0175_
*786 _0176_
*787 _0177_
*788 _0178_
*789 _0179_
*790 _0180_
*791 _0181_
*792 _0182_
*793 _0183_
*794 _0184_
*795 _0185_
*796 _0186_
*797 _0187_
*798 _0188_
*799 _0189_
*800 _0190_
*801 _0191_
*802 _0192_
*803 _0193_
*804 _0194_
*805 _0195_
*806 _0196_
*807 _0197_
*808 _0198_
*809 _0199_
*810 _0200_
*811 _0201_
*812 _0202_
*813 _0203_
*814 _0204_
*815 _0205_
*816 _0206_
*817 _0207_
*818 _0208_
*819 _0209_
*820 _0210_
*821 _0211_
*822 _0212_
*823 _0213_
*824 _0214_
*825 _0215_
*826 _0216_
*827 _0217_
*828 _0218_
*829 _0219_
*830 _0220_
*831 _0221_
*832 _0222_
*833 _0223_
*834 _0224_
*835 _0225_
*836 _0226_
*837 _0227_
*838 _0228_
*839 _0229_
*840 _0230_
*841 _0231_
*842 _0232_
*843 _0233_
*844 _0234_
*845 _0235_
*846 _0236_
*847 _0237_
*848 _0238_
*849 _0239_
*850 _0240_
*851 _0241_
*852 _0242_
*853 _0243_
*854 _0244_
*855 _0245_
*856 _0246_
*857 _0247_
*858 _0248_
*859 _0249_
*860 _0250_
*861 _0251_
*862 _0252_
*863 _0253_
*864 _0254_
*865 _0255_
*866 _0256_
*867 _0257_
*868 _0258_
*869 _0259_
*870 _0260_
*871 _0261_
*872 _0262_
*873 _0263_
*874 _0264_
*875 _0265_
*876 _0266_
*877 _0267_
*878 _0268_
*879 _0269_
*880 _0270_
*881 _0271_
*882 _0272_
*883 _0273_
*884 _0274_
*885 _0275_
*886 _0276_
*887 _0277_
*888 _0278_
*889 _0279_
*890 _0280_
*891 _0281_
*892 _0282_
*893 _0283_
*894 _0284_
*895 _0285_
*896 _0286_
*897 _0287_
*898 _0288_
*899 _0289_
*900 _0290_
*901 _0291_
*902 _0292_
*903 _0293_
*904 _0294_
*905 _0295_
*906 _0296_
*907 _0297_
*908 _0298_
*909 _0299_
*910 _0300_
*911 _0301_
*912 _0302_
*913 _0303_
*914 _0304_
*915 _0305_
*916 _0306_
*917 _0307_
*918 _0308_
*919 _0309_
*920 _0310_
*921 _0311_
*922 _0312_
*923 _0313_
*924 _0314_
*925 _0315_
*926 _0316_
*927 _0317_
*928 _0318_
*929 _0319_
*930 _0320_
*931 _0321_
*932 _0322_
*933 _0323_
*934 _0324_
*935 _0325_
*936 _0326_
*937 _0327_
*938 _0328_
*939 _0329_
*940 _0330_
*941 _0331_
*942 _0332_
*943 _0333_
*944 _0334_
*945 _0335_
*946 _0336_
*947 _0337_
*948 _0338_
*949 _0339_
*950 _0340_
*951 _0341_
*952 _0342_
*953 _0343_
*954 _0344_
*955 _0345_
*956 _0346_
*957 _0347_
*958 _0348_
*959 _0349_
*960 _0350_
*961 _0351_
*962 _0352_
*963 _0353_
*964 _0354_
*965 _0355_
*966 _0356_
*967 _0357_
*968 _0358_
*969 _0359_
*970 _0360_
*971 _0361_
*972 _0362_
*973 _0363_
*974 _0364_
*975 _0365_
*976 _0366_
*977 _0367_
*978 _0368_
*979 _0369_
*980 cfg\.cmd_adr\[0\]
*981 cfg\.cmd_adr\[10\]
*982 cfg\.cmd_adr\[11\]
*983 cfg\.cmd_adr\[12\]
*984 cfg\.cmd_adr\[13\]
*985 cfg\.cmd_adr\[14\]
*986 cfg\.cmd_adr\[15\]
*987 cfg\.cmd_adr\[16\]
*988 cfg\.cmd_adr\[17\]
*989 cfg\.cmd_adr\[18\]
*990 cfg\.cmd_adr\[19\]
*991 cfg\.cmd_adr\[1\]
*992 cfg\.cmd_adr\[20\]
*993 cfg\.cmd_adr\[21\]
*994 cfg\.cmd_adr\[22\]
*995 cfg\.cmd_adr\[23\]
*996 cfg\.cmd_adr\[24\]
*997 cfg\.cmd_adr\[25\]
*998 cfg\.cmd_adr\[26\]
*999 cfg\.cmd_adr\[27\]
*1000 cfg\.cmd_adr\[2\]
*1001 cfg\.cmd_adr\[3\]
*1002 cfg\.cmd_adr\[4\]
*1003 cfg\.cmd_adr\[5\]
*1004 cfg\.cmd_adr\[6\]
*1005 cfg\.cmd_adr\[7\]
*1006 cfg\.cmd_adr\[8\]
*1007 cfg\.cmd_adr\[9\]
*1008 cfg\.cmd_dat\[0\]
*1009 cfg\.cmd_dat\[10\]
*1010 cfg\.cmd_dat\[11\]
*1011 cfg\.cmd_dat\[12\]
*1012 cfg\.cmd_dat\[13\]
*1013 cfg\.cmd_dat\[14\]
*1014 cfg\.cmd_dat\[15\]
*1015 cfg\.cmd_dat\[16\]
*1016 cfg\.cmd_dat\[17\]
*1017 cfg\.cmd_dat\[18\]
*1018 cfg\.cmd_dat\[19\]
*1019 cfg\.cmd_dat\[1\]
*1020 cfg\.cmd_dat\[20\]
*1021 cfg\.cmd_dat\[21\]
*1022 cfg\.cmd_dat\[22\]
*1023 cfg\.cmd_dat\[23\]
*1024 cfg\.cmd_dat\[24\]
*1025 cfg\.cmd_dat\[25\]
*1026 cfg\.cmd_dat\[26\]
*1027 cfg\.cmd_dat\[27\]
*1028 cfg\.cmd_dat\[28\]
*1029 cfg\.cmd_dat\[29\]
*1030 cfg\.cmd_dat\[2\]
*1031 cfg\.cmd_dat\[30\]
*1032 cfg\.cmd_dat\[31\]
*1033 cfg\.cmd_dat\[3\]
*1034 cfg\.cmd_dat\[4\]
*1035 cfg\.cmd_dat\[5\]
*1036 cfg\.cmd_dat\[6\]
*1037 cfg\.cmd_dat\[7\]
*1038 cfg\.cmd_dat\[8\]
*1039 cfg\.cmd_dat\[9\]
*1040 cfg\.cmd_we
*1041 cfg\.wb_cmd_val
*1042 clknet_0_wb_clk_i
*1043 clknet_4_0_0_wb_clk_i
*1044 clknet_4_10_0_wb_clk_i
*1045 clknet_4_11_0_wb_clk_i
*1046 clknet_4_12_0_wb_clk_i
*1047 clknet_4_13_0_wb_clk_i
*1048 clknet_4_14_0_wb_clk_i
*1049 clknet_4_15_0_wb_clk_i
*1050 clknet_4_1_0_wb_clk_i
*1051 clknet_4_2_0_wb_clk_i
*1052 clknet_4_3_0_wb_clk_i
*1053 clknet_4_4_0_wb_clk_i
*1054 clknet_4_5_0_wb_clk_i
*1055 clknet_4_6_0_wb_clk_i
*1056 clknet_4_7_0_wb_clk_i
*1057 clknet_4_8_0_wb_clk_i
*1058 clknet_4_9_0_wb_clk_i
*1059 ctl\.cfg0_q\[0\]
*1060 ctl\.cfg0_q\[10\]
*1061 ctl\.cfg0_q\[11\]
*1062 ctl\.cfg0_q\[12\]
*1063 ctl\.cfg0_q\[13\]
*1064 ctl\.cfg0_q\[14\]
*1065 ctl\.cfg0_q\[15\]
*1066 ctl\.cfg0_q\[16\]
*1067 ctl\.cfg0_q\[17\]
*1068 ctl\.cfg0_q\[18\]
*1069 ctl\.cfg0_q\[19\]
*1070 ctl\.cfg0_q\[1\]
*1071 ctl\.cfg0_q\[20\]
*1072 ctl\.cfg0_q\[21\]
*1073 ctl\.cfg0_q\[22\]
*1074 ctl\.cfg0_q\[23\]
*1075 ctl\.cfg0_q\[24\]
*1076 ctl\.cfg0_q\[25\]
*1077 ctl\.cfg0_q\[26\]
*1078 ctl\.cfg0_q\[27\]
*1079 ctl\.cfg0_q\[28\]
*1080 ctl\.cfg0_q\[29\]
*1081 ctl\.cfg0_q\[2\]
*1082 ctl\.cfg0_q\[30\]
*1083 ctl\.cfg0_q\[31\]
*1084 ctl\.cfg0_q\[3\]
*1085 ctl\.cfg0_q\[4\]
*1086 ctl\.cfg0_q\[5\]
*1087 ctl\.cfg0_q\[6\]
*1088 ctl\.cfg0_q\[7\]
*1089 ctl\.cfg0_q\[8\]
*1090 ctl\.cfg0_q\[9\]
*1091 ctl\.rd_wait_q\[0\]
*1092 ctl\.rd_wait_q\[1\]
*1093 ctl\.rd_wait_q\[2\]
*1094 ctl\.seq_q\[0\]
*1095 ctl\.seq_q\[1\]
*1096 ctl\.seq_q\[2\]
*1097 ctl\.seq_q\[3\]
*1098 net1
*1099 net10
*1100 net11
*1101 net12
*1102 net13
*1103 net14
*1104 net15
*1105 net16
*1106 net17
*1107 net18
*1108 net19
*1109 net2
*1110 net20
*1111 net21
*1112 net22
*1113 net23
*1114 net24
*1115 net25
*1116 net26
*1117 net27
*1118 net28
*1119 net29
*1120 net3
*1121 net30
*1122 net31
*1123 net32
*1124 net33
*1125 net34
*1126 net35
*1127 net36
*1128 net37
*1129 net38
*1130 net39
*1131 net4
*1132 net40
*1133 net41
*1134 net42
*1135 net43
*1136 net44
*1137 net45
*1138 net46
*1139 net47
*1140 net48
*1141 net49
*1142 net5
*1143 net50
*1144 net51
*1145 net52
*1146 net53
*1147 net54
*1148 net55
*1149 net56
*1150 net57
*1151 net58
*1152 net59
*1153 net6
*1154 net60
*1155 net61
*1156 net62
*1157 net63
*1158 net64
*1159 net65
*1160 net66
*1161 net67
*1162 net68
*1163 net69
*1164 net7
*1165 net70
*1166 net71
*1167 net72
*1168 net73
*1169 net74
*1170 net75
*1171 net76
*1172 net77
*1173 net78
*1174 net79
*1175 net8
*1176 net80
*1177 net81
*1178 net82
*1179 net83
*1180 net84
*1181 net85
*1182 net86
*1183 net87
*1184 net88
*1185 net89
*1186 net9
*1187 net90
*1188 net91
*1189 net92
*1190 net93
*1191 net94
*1192 net95
*1193 net96
*1194 wb\.rd_ack_q
*1195 ANTENNA__0372__A
*1196 ANTENNA__0381__A
*1197 ANTENNA__0392__A
*1198 ANTENNA__0403__A
*1199 ANTENNA__0414__A
*1200 ANTENNA__0426__A
*1201 ANTENNA__0437__A
*1202 ANTENNA__0448__A
*1203 ANTENNA__0459__A
*1204 ANTENNA__0470__A
*1205 ANTENNA__0478__A
*1206 ANTENNA__0482__A
*1207 ANTENNA__0493__A
*1208 ANTENNA__0504__A
*1209 ANTENNA__0529__A
*1210 ANTENNA__0531__B
*1211 ANTENNA__0537__A
*1212 ANTENNA__0538__A
*1213 ANTENNA__0539__A1
*1214 ANTENNA__0539__A2
*1215 ANTENNA__0539__B1
*1216 ANTENNA__0542__B
*1217 ANTENNA__0544__A
*1218 ANTENNA__0555__A
*1219 ANTENNA__0566__A
*1220 ANTENNA__0577__A
*1221 ANTENNA__0588__A
*1222 ANTENNA__0599__A
*1223 ANTENNA__0630__A1
*1224 ANTENNA__0657__C1
*1225 ANTENNA__0661__A2
*1226 ANTENNA__0665__B
*1227 ANTENNA__0666__A1
*1228 ANTENNA__0666__B1
*1229 ANTENNA__0667__A
*1230 ANTENNA__0667__B
*1231 ANTENNA__0668__A1
*1232 ANTENNA__0668__B1
*1233 ANTENNA__0670__B
*1234 ANTENNA__0671__A1
*1235 ANTENNA__0671__B1
*1236 ANTENNA__0672__B
*1237 ANTENNA__0673__A1
*1238 ANTENNA__0673__B1
*1239 ANTENNA__0676__A
*1240 ANTENNA__0677__A1
*1241 ANTENNA__0679__A1
*1242 ANTENNA__0681__A1
*1243 ANTENNA__0683__A
*1244 ANTENNA__0690__A
*1245 ANTENNA__0691__B1
*1246 ANTENNA__0693__A1
*1247 ANTENNA__0693__B1
*1248 ANTENNA__0695__B1
*1249 ANTENNA__0697__A1
*1250 ANTENNA__0697__A2
*1251 ANTENNA__0697__B1
*1252 ANTENNA__0699__B1
*1253 ANTENNA__0700__A
*1254 ANTENNA__0701__A
*1255 ANTENNA__0703__A
*1256 ANTENNA__0713__A
*1257 ANTENNA__0714__A
*1258 ANTENNA__0716__A
*1259 ANTENNA__0726__A
*1260 ANTENNA__0727__A
*1261 ANTENNA__0729__A
*1262 ANTENNA__0740__A1
*1263 ANTENNA__0740__B1
*1264 ANTENNA_clkbuf_0_wb_clk_i_A
*1265 ANTENNA_clkbuf_4_0_0_wb_clk_i_A
*1266 ANTENNA_clkbuf_4_10_0_wb_clk_i_A
*1267 ANTENNA_clkbuf_4_11_0_wb_clk_i_A
*1268 ANTENNA_clkbuf_4_12_0_wb_clk_i_A
*1269 ANTENNA_clkbuf_4_13_0_wb_clk_i_A
*1270 ANTENNA_clkbuf_4_14_0_wb_clk_i_A
*1271 ANTENNA_clkbuf_4_15_0_wb_clk_i_A
*1272 ANTENNA_clkbuf_4_1_0_wb_clk_i_A
*1273 ANTENNA_clkbuf_4_2_0_wb_clk_i_A
*1274 ANTENNA_clkbuf_4_3_0_wb_clk_i_A
*1275 ANTENNA_clkbuf_4_4_0_wb_clk_i_A
*1276 ANTENNA_clkbuf_4_5_0_wb_clk_i_A
*1277 ANTENNA_clkbuf_4_6_0_wb_clk_i_A
*1278 ANTENNA_clkbuf_4_7_0_wb_clk_i_A
*1279 ANTENNA_clkbuf_4_8_0_wb_clk_i_A
*1280 ANTENNA_clkbuf_4_9_0_wb_clk_i_A
*1281 ANTENNA_input10_A
*1282 ANTENNA_input11_A
*1283 ANTENNA_input12_A
*1284 ANTENNA_input13_A
*1285 ANTENNA_input14_A
*1286 ANTENNA_input15_A
*1287 ANTENNA_input16_A
*1288 ANTENNA_input17_A
*1289 ANTENNA_input18_A
*1290 ANTENNA_input19_A
*1291 ANTENNA_input1_A
*1292 ANTENNA_input20_A
*1293 ANTENNA_input21_A
*1294 ANTENNA_input22_A
*1295 ANTENNA_input23_A
*1296 ANTENNA_input24_A
*1297 ANTENNA_input25_A
*1298 ANTENNA_input26_A
*1299 ANTENNA_input27_A
*1300 ANTENNA_input28_A
*1301 ANTENNA_input29_A
*1302 ANTENNA_input2_A
*1303 ANTENNA_input30_A
*1304 ANTENNA_input31_A
*1305 ANTENNA_input32_A
*1306 ANTENNA_input33_A
*1307 ANTENNA_input34_A
*1308 ANTENNA_input35_A
*1309 ANTENNA_input36_A
*1310 ANTENNA_input37_A
*1311 ANTENNA_input38_A
*1312 ANTENNA_input39_A
*1313 ANTENNA_input3_A
*1314 ANTENNA_input40_A
*1315 ANTENNA_input41_A
*1316 ANTENNA_input42_A
*1317 ANTENNA_input43_A
*1318 ANTENNA_input44_A
*1319 ANTENNA_input45_A
*1320 ANTENNA_input46_A
*1321 ANTENNA_input47_A
*1322 ANTENNA_input48_A
*1323 ANTENNA_input49_A
*1324 ANTENNA_input4_A
*1325 ANTENNA_input50_A
*1326 ANTENNA_input51_A
*1327 ANTENNA_input52_A
*1328 ANTENNA_input53_A
*1329 ANTENNA_input54_A
*1330 ANTENNA_input55_A
*1331 ANTENNA_input56_A
*1332 ANTENNA_input57_A
*1333 ANTENNA_input58_A
*1334 ANTENNA_input59_A
*1335 ANTENNA_input5_A
*1336 ANTENNA_input60_A
*1337 ANTENNA_input61_A
*1338 ANTENNA_input62_A
*1339 ANTENNA_input63_A
*1340 ANTENNA_input6_A
*1341 ANTENNA_input7_A
*1342 ANTENNA_input8_A
*1343 ANTENNA_input9_A
*1344 ANTENNA_output89_A
*1345 ANTENNA_output94_A
*1346 FILLER_0_100
*1347 FILLER_0_1006
*1348 FILLER_0_1012
*1349 FILLER_0_1019
*1350 FILLER_0_1026
*1351 FILLER_0_1034
*1352 FILLER_0_1040
*1353 FILLER_0_1047
*1354 FILLER_0_1054
*1355 FILLER_0_1062
*1356 FILLER_0_1068
*1357 FILLER_0_1075
*1358 FILLER_0_108
*1359 FILLER_0_1082
*1360 FILLER_0_1090
*1361 FILLER_0_1096
*1362 FILLER_0_1103
*1363 FILLER_0_1110
*1364 FILLER_0_1118
*1365 FILLER_0_1124
*1366 FILLER_0_1131
*1367 FILLER_0_1138
*1368 FILLER_0_1146
*1369 FILLER_0_1149
*1370 FILLER_0_116
*1371 FILLER_0_1161
*1372 FILLER_0_1173
*1373 FILLER_0_1177
*1374 FILLER_0_1189
*1375 FILLER_0_12
*1376 FILLER_0_1201
*1377 FILLER_0_1205
*1378 FILLER_0_1217
*1379 FILLER_0_1229
*1380 FILLER_0_1233
*1381 FILLER_0_1245
*1382 FILLER_0_1257
*1383 FILLER_0_126
*1384 FILLER_0_1261
*1385 FILLER_0_1273
*1386 FILLER_0_136
*1387 FILLER_0_144
*1388 FILLER_0_154
*1389 FILLER_0_164
*1390 FILLER_0_169
*1391 FILLER_0_18
*1392 FILLER_0_188
*1393 FILLER_0_200
*1394 FILLER_0_210
*1395 FILLER_0_220
*1396 FILLER_0_228
*1397 FILLER_0_24
*1398 FILLER_0_248
*1399 FILLER_0_256
*1400 FILLER_0_266
*1401 FILLER_0_276
*1402 FILLER_0_297
*1403 FILLER_0_3
*1404 FILLER_0_304
*1405 FILLER_0_309
*1406 FILLER_0_31
*1407 FILLER_0_318
*1408 FILLER_0_328
*1409 FILLER_0_340
*1410 FILLER_0_348
*1411 FILLER_0_356
*1412 FILLER_0_369
*1413 FILLER_0_377
*1414 FILLER_0_38
*1415 FILLER_0_381
*1416 FILLER_0_388
*1417 FILLER_0_395
*1418 FILLER_0_402
*1419 FILLER_0_409
*1420 FILLER_0_416
*1421 FILLER_0_423
*1422 FILLER_0_430
*1423 FILLER_0_437
*1424 FILLER_0_444
*1425 FILLER_0_449
*1426 FILLER_0_45
*1427 FILLER_0_458
*1428 FILLER_0_465
*1429 FILLER_0_472
*1430 FILLER_0_477
*1431 FILLER_0_486
*1432 FILLER_0_493
*1433 FILLER_0_500
*1434 FILLER_0_505
*1435 FILLER_0_514
*1436 FILLER_0_52
*1437 FILLER_0_521
*1438 FILLER_0_528
*1439 FILLER_0_533
*1440 FILLER_0_542
*1441 FILLER_0_549
*1442 FILLER_0_556
*1443 FILLER_0_561
*1444 FILLER_0_570
*1445 FILLER_0_577
*1446 FILLER_0_584
*1447 FILLER_0_589
*1448 FILLER_0_59
*1449 FILLER_0_598
*1450 FILLER_0_6
*1451 FILLER_0_605
*1452 FILLER_0_612
*1453 FILLER_0_617
*1454 FILLER_0_626
*1455 FILLER_0_633
*1456 FILLER_0_640
*1457 FILLER_0_645
*1458 FILLER_0_649
*1459 FILLER_0_653
*1460 FILLER_0_66
*1461 FILLER_0_660
*1462 FILLER_0_667
*1463 FILLER_0_671
*1464 FILLER_0_676
*1465 FILLER_0_683
*1466 FILLER_0_690
*1467 FILLER_0_698
*1468 FILLER_0_704
*1469 FILLER_0_711
*1470 FILLER_0_718
*1471 FILLER_0_726
*1472 FILLER_0_73
*1473 FILLER_0_732
*1474 FILLER_0_739
*1475 FILLER_0_746
*1476 FILLER_0_754
*1477 FILLER_0_760
*1478 FILLER_0_767
*1479 FILLER_0_774
*1480 FILLER_0_782
*1481 FILLER_0_788
*1482 FILLER_0_795
*1483 FILLER_0_80
*1484 FILLER_0_802
*1485 FILLER_0_810
*1486 FILLER_0_816
*1487 FILLER_0_823
*1488 FILLER_0_830
*1489 FILLER_0_838
*1490 FILLER_0_844
*1491 FILLER_0_85
*1492 FILLER_0_851
*1493 FILLER_0_858
*1494 FILLER_0_866
*1495 FILLER_0_872
*1496 FILLER_0_879
*1497 FILLER_0_886
*1498 FILLER_0_894
*1499 FILLER_0_900
*1500 FILLER_0_907
*1501 FILLER_0_914
*1502 FILLER_0_92
*1503 FILLER_0_922
*1504 FILLER_0_928
*1505 FILLER_0_935
*1506 FILLER_0_942
*1507 FILLER_0_950
*1508 FILLER_0_956
*1509 FILLER_0_963
*1510 FILLER_0_970
*1511 FILLER_0_978
*1512 FILLER_0_984
*1513 FILLER_0_991
*1514 FILLER_0_998
*1515 FILLER_100_1005
*1516 FILLER_100_1017
*1517 FILLER_100_1029
*1518 FILLER_100_1035
*1519 FILLER_100_1037
*1520 FILLER_100_1049
*1521 FILLER_100_1061
*1522 FILLER_100_1073
*1523 FILLER_100_1085
*1524 FILLER_100_109
*1525 FILLER_100_1091
*1526 FILLER_100_1093
*1527 FILLER_100_1105
*1528 FILLER_100_1117
*1529 FILLER_100_1129
*1530 FILLER_100_1141
*1531 FILLER_100_1147
*1532 FILLER_100_1149
*1533 FILLER_100_1161
*1534 FILLER_100_1173
*1535 FILLER_100_1185
*1536 FILLER_100_1197
*1537 FILLER_100_1203
*1538 FILLER_100_1205
*1539 FILLER_100_121
*1540 FILLER_100_1217
*1541 FILLER_100_1229
*1542 FILLER_100_1241
*1543 FILLER_100_1253
*1544 FILLER_100_1259
*1545 FILLER_100_1261
*1546 FILLER_100_1273
*1547 FILLER_100_133
*1548 FILLER_100_139
*1549 FILLER_100_141
*1550 FILLER_100_15
*1551 FILLER_100_153
*1552 FILLER_100_165
*1553 FILLER_100_177
*1554 FILLER_100_189
*1555 FILLER_100_195
*1556 FILLER_100_197
*1557 FILLER_100_209
*1558 FILLER_100_221
*1559 FILLER_100_233
*1560 FILLER_100_245
*1561 FILLER_100_251
*1562 FILLER_100_253
*1563 FILLER_100_265
*1564 FILLER_100_27
*1565 FILLER_100_277
*1566 FILLER_100_289
*1567 FILLER_100_29
*1568 FILLER_100_3
*1569 FILLER_100_301
*1570 FILLER_100_307
*1571 FILLER_100_309
*1572 FILLER_100_321
*1573 FILLER_100_333
*1574 FILLER_100_345
*1575 FILLER_100_357
*1576 FILLER_100_363
*1577 FILLER_100_365
*1578 FILLER_100_377
*1579 FILLER_100_389
*1580 FILLER_100_401
*1581 FILLER_100_41
*1582 FILLER_100_413
*1583 FILLER_100_419
*1584 FILLER_100_421
*1585 FILLER_100_433
*1586 FILLER_100_445
*1587 FILLER_100_457
*1588 FILLER_100_469
*1589 FILLER_100_475
*1590 FILLER_100_477
*1591 FILLER_100_489
*1592 FILLER_100_501
*1593 FILLER_100_513
*1594 FILLER_100_525
*1595 FILLER_100_53
*1596 FILLER_100_531
*1597 FILLER_100_533
*1598 FILLER_100_545
*1599 FILLER_100_557
*1600 FILLER_100_569
*1601 FILLER_100_581
*1602 FILLER_100_587
*1603 FILLER_100_589
*1604 FILLER_100_601
*1605 FILLER_100_613
*1606 FILLER_100_625
*1607 FILLER_100_637
*1608 FILLER_100_643
*1609 FILLER_100_645
*1610 FILLER_100_65
*1611 FILLER_100_657
*1612 FILLER_100_669
*1613 FILLER_100_681
*1614 FILLER_100_693
*1615 FILLER_100_699
*1616 FILLER_100_701
*1617 FILLER_100_713
*1618 FILLER_100_725
*1619 FILLER_100_737
*1620 FILLER_100_749
*1621 FILLER_100_755
*1622 FILLER_100_757
*1623 FILLER_100_769
*1624 FILLER_100_77
*1625 FILLER_100_781
*1626 FILLER_100_793
*1627 FILLER_100_805
*1628 FILLER_100_811
*1629 FILLER_100_813
*1630 FILLER_100_825
*1631 FILLER_100_83
*1632 FILLER_100_837
*1633 FILLER_100_849
*1634 FILLER_100_85
*1635 FILLER_100_861
*1636 FILLER_100_867
*1637 FILLER_100_869
*1638 FILLER_100_881
*1639 FILLER_100_893
*1640 FILLER_100_905
*1641 FILLER_100_917
*1642 FILLER_100_923
*1643 FILLER_100_925
*1644 FILLER_100_937
*1645 FILLER_100_949
*1646 FILLER_100_961
*1647 FILLER_100_97
*1648 FILLER_100_973
*1649 FILLER_100_979
*1650 FILLER_100_981
*1651 FILLER_100_993
*1652 FILLER_101_1001
*1653 FILLER_101_1007
*1654 FILLER_101_1009
*1655 FILLER_101_1021
*1656 FILLER_101_1033
*1657 FILLER_101_1045
*1658 FILLER_101_105
*1659 FILLER_101_1057
*1660 FILLER_101_1063
*1661 FILLER_101_1065
*1662 FILLER_101_1077
*1663 FILLER_101_1089
*1664 FILLER_101_1101
*1665 FILLER_101_111
*1666 FILLER_101_1113
*1667 FILLER_101_1119
*1668 FILLER_101_1121
*1669 FILLER_101_113
*1670 FILLER_101_1133
*1671 FILLER_101_1145
*1672 FILLER_101_1157
*1673 FILLER_101_1169
*1674 FILLER_101_1175
*1675 FILLER_101_1177
*1676 FILLER_101_1189
*1677 FILLER_101_1201
*1678 FILLER_101_1213
*1679 FILLER_101_1225
*1680 FILLER_101_1231
*1681 FILLER_101_1233
*1682 FILLER_101_1245
*1683 FILLER_101_125
*1684 FILLER_101_1257
*1685 FILLER_101_1269
*1686 FILLER_101_137
*1687 FILLER_101_149
*1688 FILLER_101_15
*1689 FILLER_101_161
*1690 FILLER_101_167
*1691 FILLER_101_169
*1692 FILLER_101_181
*1693 FILLER_101_193
*1694 FILLER_101_205
*1695 FILLER_101_217
*1696 FILLER_101_223
*1697 FILLER_101_225
*1698 FILLER_101_237
*1699 FILLER_101_249
*1700 FILLER_101_261
*1701 FILLER_101_27
*1702 FILLER_101_273
*1703 FILLER_101_279
*1704 FILLER_101_281
*1705 FILLER_101_293
*1706 FILLER_101_3
*1707 FILLER_101_305
*1708 FILLER_101_317
*1709 FILLER_101_329
*1710 FILLER_101_335
*1711 FILLER_101_337
*1712 FILLER_101_349
*1713 FILLER_101_361
*1714 FILLER_101_373
*1715 FILLER_101_385
*1716 FILLER_101_39
*1717 FILLER_101_391
*1718 FILLER_101_393
*1719 FILLER_101_405
*1720 FILLER_101_417
*1721 FILLER_101_429
*1722 FILLER_101_441
*1723 FILLER_101_447
*1724 FILLER_101_449
*1725 FILLER_101_461
*1726 FILLER_101_473